data_TiO2_H-H
_audit_creation_date              2021-06-29
_audit_creation_method            'Materials Studio'
_symmetry_space_group_name_H-M    'P1'
_symmetry_Int_Tables_number       1
_symmetry_cell_setting            triclinic
loop_
_symmetry_equiv_pos_as_xyz
  x,y,z
_cell_length_a                    8.8770
_cell_length_b                    6.4969
_cell_length_c                    22.2817
_cell_angle_alpha                 90.0000
_cell_angle_beta                  90.0000
_cell_angle_gamma                 90.0000
loop_
_atom_site_label
_atom_site_type_symbol
_atom_site_fract_x
_atom_site_fract_y
_atom_site_fract_z
_atom_site_U_iso_or_equiv
_atom_site_adp_type
_atom_site_occupancy
Ti1    Ti    0.15116   0.50000   0.19156   0.00000  Uiso   1.00
Ti2    Ti    0.15116   0.00000   0.33735   0.00000  Uiso   1.00
Ti3    Ti    0.15116   0.50000   0.48314   0.00000  Uiso   1.00
Ti4    Ti    0.15116   0.00000   0.62892   0.00000  Uiso   1.00
Ti5    Ti    0.31782   0.00000   0.19156   0.00000  Uiso   1.00
Ti6    Ti    0.31782   0.50000   0.33735   0.00000  Uiso   1.00
Ti7    Ti    0.31782   0.00000   0.48314   0.00000  Uiso   1.00
Ti8    Ti    0.31782   0.50000   0.62892   0.00000  Uiso   1.00
O9     O     0.15116   0.00000   0.13464   0.00000  Uiso   1.00
O10    O     0.15116   0.50000   0.28043   0.00000  Uiso   1.00
O11    O     0.15116   0.00000   0.42622   0.00000  Uiso   1.00
O12    O     0.15116   0.50000   0.57201   0.00000  Uiso   1.00
O13    O     0.15116   0.00000   0.24847   0.00000  Uiso   1.00
O14    O     0.15116   0.50000   0.39426   0.00000  Uiso   1.00
O15    O     0.15116   0.00000   0.54005   0.00000  Uiso   1.00
O16    O     0.15116   0.50000   0.68584   0.00000  Uiso   1.00
O17    O     0.31782   0.69520   0.19156   0.00000  Uiso   1.00
O18    O     0.31782   0.19520   0.33735   0.00000  Uiso   1.00
O19    O     0.31782   0.69520   0.48314   0.00000  Uiso   1.00
O20    O     0.31782   0.19520   0.62892   0.00000  Uiso   1.00
O21    O     0.31782   0.30480   0.19156   0.00000  Uiso   1.00
O22    O     0.31782   0.80480   0.33735   0.00000  Uiso   1.00
O23    O     0.31782   0.30480   0.48314   0.00000  Uiso   1.00
O24    O     0.31782   0.80480   0.62892   0.00000  Uiso   1.00
Ti25   Ti    0.48449   0.50000   0.19156   0.00000  Uiso   1.00
Ti26   Ti    0.48449   0.00000   0.33735   0.00000  Uiso   1.00
Ti27   Ti    0.48449   0.50000   0.48314   0.00000  Uiso   1.00
Ti28   Ti    0.48449   0.00000   0.62892   0.00000  Uiso   1.00
Ti29   Ti    0.65116   0.00000   0.19156   0.00000  Uiso   1.00
Ti30   Ti    0.65116   0.50000   0.33735   0.00000  Uiso   1.00
Ti31   Ti    0.65116   0.00000   0.48314   0.00000  Uiso   1.00
Ti32   Ti    0.65116   0.50000   0.62892   0.00000  Uiso   1.00
O33    O     0.48449   0.00000   0.13464   0.00000  Uiso   1.00
O34    O     0.48449   0.50000   0.28043   0.00000  Uiso   1.00
O35    O     0.48449   0.00000   0.42622   0.00000  Uiso   1.00
O36    O     0.48449   0.50000   0.57201   0.00000  Uiso   1.00
O37    O     0.48449   0.00000   0.24847   0.00000  Uiso   1.00
O38    O     0.48449   0.50000   0.39426   0.00000  Uiso   1.00
O39    O     0.48449   0.00000   0.54005   0.00000  Uiso   1.00
O40    O     0.48449   0.50000   0.68584   0.00000  Uiso   1.00
O41    O     0.65116   0.69520   0.19156   0.00000  Uiso   1.00
O42    O     0.65116   0.19520   0.33735   0.00000  Uiso   1.00
O43    O     0.65116   0.69520   0.48314   0.00000  Uiso   1.00
O44    O     0.65116   0.19520   0.62892   0.00000  Uiso   1.00
O45    O     0.65116   0.30480   0.19156   0.00000  Uiso   1.00
O46    O     0.65116   0.80480   0.33735   0.00000  Uiso   1.00
O47    O     0.65116   0.30480   0.48314   0.00000  Uiso   1.00
O48    O     0.65116   0.80480   0.62892   0.00000  Uiso   1.00
Ti49   Ti    0.81782   0.50000   0.19156   0.00000  Uiso   1.00
Ti50   Ti    0.81782   0.00000   0.33735   0.00000  Uiso   1.00
Ti51   Ti    0.81782   0.50000   0.48314   0.00000  Uiso   1.00
Ti52   Ti    0.81782   0.00000   0.62892   0.00000  Uiso   1.00
Ti53   Ti    0.98449   0.00000   0.19156   0.00000  Uiso   1.00
Ti54   Ti    0.98449   0.50000   0.33735   0.00000  Uiso   1.00
Ti55   Ti    0.98449   0.00000   0.48314   0.00000  Uiso   1.00
Ti56   Ti    0.98449   0.50000   0.62892   0.00000  Uiso   1.00
O57    O     0.81782   0.00000   0.13464   0.00000  Uiso   1.00
O58    O     0.81782   0.50000   0.28043   0.00000  Uiso   1.00
O59    O     0.81782   0.00000   0.42622   0.00000  Uiso   1.00
O60    O     0.81782   0.50000   0.57201   0.00000  Uiso   1.00
O61    O     0.81782   0.00000   0.24847   0.00000  Uiso   1.00
O62    O     0.81782   0.50000   0.39426   0.00000  Uiso   1.00
O63    O     0.81782   0.00000   0.54005   0.00000  Uiso   1.00
O64    O     0.81782   0.50000   0.68584   0.00000  Uiso   1.00
O65    O     0.98449   0.69520   0.19156   0.00000  Uiso   1.00
O66    O     0.98449   0.19520   0.33735   0.00000  Uiso   1.00
O67    O     0.98449   0.69520   0.48314   0.00000  Uiso   1.00
O68    O     0.98449   0.19520   0.62892   0.00000  Uiso   1.00
O69    O     0.98449   0.30480   0.19156   0.00000  Uiso   1.00
O70    O     0.98449   0.80480   0.33735   0.00000  Uiso   1.00
O71    O     0.98449   0.30480   0.48314   0.00000  Uiso   1.00
O72    O     0.98449   0.80480   0.62892   0.00000  Uiso   1.00
H73    H     0.54564   0.51204   0.72915   0.00000  Uiso   1.00
H74    H     0.38243   0.48034   0.71405   0.00000  Uiso   1.00
loop_
_geom_bond_atom_site_label_1
_geom_bond_atom_site_label_2
_geom_bond_distance
_geom_bond_site_symmetry_2
_ccdc_geom_bond_type
Ti1    O10     1.980   .     S
Ti1    O17     1.949   .     S
Ti1    O21     1.949   .     S
Ti1    O69     1.949   1_455 S
Ti1    O65     1.949   1_455 S
Ti2    O11     1.980   .     S
Ti2    O13     1.980   .     S
Ti2    O18     1.949   .     S
Ti2    O22     1.949   1_545 S
Ti2    O70     1.949   1_445 S
Ti2    O66     1.949   1_455 S
Ti3    O12     1.980   .     S
Ti3    O14     1.980   .     S
Ti3    O19     1.949   .     S
Ti3    O23     1.949   .     S
Ti3    O71     1.949   1_455 S
Ti3    O67     1.949   1_455 S
Ti4    O15     1.980   .     S
Ti4    O20     1.949   .     S
Ti4    O24     1.949   1_545 S
Ti4    O72     1.949   1_445 S
Ti4    O68     1.949   1_455 S
Ti5    O21     1.980   .     S
Ti5    O37     1.949   .     S
Ti5    O33     1.949   .     S
Ti5    O9      1.949   .     S
Ti5    O13     1.949   .     S
Ti5    O17     1.980   1_545 S
Ti6    O18     1.980   .     S
Ti6    O22     1.980   .     S
Ti6    O38     1.949   .     S
Ti6    O34     1.949   .     S
Ti6    O10     1.949   .     S
Ti6    O14     1.949   .     S
Ti7    O23     1.980   .     S
Ti7    O39     1.949   .     S
Ti7    O35     1.949   .     S
Ti7    O11     1.949   .     S
Ti7    O15     1.949   .     S
Ti7    O19     1.980   1_545 S
Ti8    O20     1.980   .     S
Ti8    O24     1.980   .     S
Ti8    O40     1.949   .     S
Ti8    O36     1.949   .     S
Ti8    O12     1.949   .     S
Ti8    O16     1.949   .     S
O9     Ti53    1.949   1_455 S
O10    Ti54    1.949   1_455 S
O11    Ti55    1.949   1_455 S
O12    Ti56    1.949   1_455 S
O13    Ti53    1.949   1_455 S
O14    Ti54    1.949   1_455 S
O15    Ti55    1.949   1_455 S
O16    Ti56    1.949   1_455 S
O17    Ti25    1.949   .     S
O17    Ti5     1.980   1_565 S
O18    Ti26    1.949   .     S
O19    Ti27    1.949   .     S
O19    Ti7     1.980   1_565 S
O20    Ti28    1.949   .     S
O21    Ti25    1.949   .     S
O22    Ti2     1.949   1_565 S
O22    Ti26    1.949   1_565 S
O23    Ti27    1.949   .     S
O24    Ti4     1.949   1_565 S
O24    Ti28    1.949   1_565 S
Ti25   O34     1.980   .     S
Ti25   O41     1.949   .     S
Ti25   O45     1.949   .     S
Ti26   O35     1.980   .     S
Ti26   O37     1.980   .     S
Ti26   O42     1.949   .     S
Ti26   O22     1.949   1_545 S
Ti26   O46     1.949   1_545 S
Ti27   O36     1.980   .     S
Ti27   O38     1.980   .     S
Ti27   O43     1.949   .     S
Ti27   O47     1.949   .     S
Ti28   O39     1.980   .     S
Ti28   O44     1.949   .     S
Ti28   O24     1.949   1_545 S
Ti28   O48     1.949   1_545 S
Ti29   O45     1.980   .     S
Ti29   O61     1.949   .     S
Ti29   O57     1.949   .     S
Ti29   O33     1.949   .     S
Ti29   O37     1.949   .     S
Ti29   O41     1.980   1_545 S
Ti30   O42     1.980   .     S
Ti30   O46     1.980   .     S
Ti30   O62     1.949   .     S
Ti30   O58     1.949   .     S
Ti30   O34     1.949   .     S
Ti30   O38     1.949   .     S
Ti31   O47     1.980   .     S
Ti31   O63     1.949   .     S
Ti31   O59     1.949   .     S
Ti31   O35     1.949   .     S
Ti31   O39     1.949   .     S
Ti31   O43     1.980   1_545 S
Ti32   O44     1.980   .     S
Ti32   O48     1.980   .     S
Ti32   O64     1.949   .     S
Ti32   O60     1.949   .     S
Ti32   O36     1.949   .     S
Ti32   O40     1.949   .     S
O40    H73     1.110   .     S
O40    H74     1.110   .     S
O41    Ti49    1.949   .     S
O41    Ti29    1.980   1_565 S
O42    Ti50    1.949   .     S
O43    Ti51    1.949   .     S
O43    Ti31    1.980   1_565 S
O44    Ti52    1.949   .     S
O45    Ti49    1.949   .     S
O46    Ti26    1.949   1_565 S
O46    Ti50    1.949   1_565 S
O47    Ti51    1.949   .     S
O48    Ti28    1.949   1_565 S
O48    Ti52    1.949   1_565 S
Ti49   O58     1.980   .     S
Ti49   O65     1.949   .     S
Ti49   O69     1.949   .     S
Ti50   O59     1.980   .     S
Ti50   O61     1.980   .     S
Ti50   O66     1.949   .     S
Ti50   O46     1.949   1_545 S
Ti50   O70     1.949   1_545 S
Ti51   O60     1.980   .     S
Ti51   O62     1.980   .     S
Ti51   O67     1.949   .     S
Ti51   O71     1.949   .     S
Ti52   O63     1.980   .     S
Ti52   O68     1.949   .     S
Ti52   O48     1.949   1_545 S
Ti52   O72     1.949   1_545 S
Ti53   O69     1.980   .     S
Ti53   O57     1.949   .     S
Ti53   O61     1.949   .     S
Ti53   O9      1.949   1_655 S
Ti53   O13     1.949   1_655 S
Ti53   O65     1.980   1_545 S
Ti54   O66     1.980   .     S
Ti54   O70     1.980   .     S
Ti54   O58     1.949   .     S
Ti54   O62     1.949   .     S
Ti54   O10     1.949   1_655 S
Ti54   O14     1.949   1_655 S
Ti55   O71     1.980   .     S
Ti55   O59     1.949   .     S
Ti55   O63     1.949   .     S
Ti55   O11     1.949   1_655 S
Ti55   O15     1.949   1_655 S
Ti55   O67     1.980   1_545 S
Ti56   O68     1.980   .     S
Ti56   O72     1.980   .     S
Ti56   O60     1.949   .     S
Ti56   O64     1.949   .     S
Ti56   O12     1.949   1_655 S
Ti56   O16     1.949   1_655 S
O65    Ti1     1.949   1_655 S
O65    Ti53    1.980   1_565 S
O66    Ti2     1.949   1_655 S
O67    Ti3     1.949   1_655 S
O67    Ti55    1.980   1_565 S
O68    Ti4     1.949   1_655 S
O69    Ti1     1.949   1_655 S
O70    Ti2     1.949   1_665 S
O70    Ti50    1.949   1_565 S
O71    Ti3     1.949   1_655 S
O72    Ti4     1.949   1_665 S
O72    Ti52    1.949   1_565 S
